/*--------------------------------*- C++ -*----------------------------------*\
| =========                 |                                                 |
| \\      /  F ield         | OpenFOAM: The Open Source CFD Toolbox           |
|  \\    /   O peration     | Version:  v2106                                 |
|   \\  /    A nd           | Website:  www.openfoam.com                      |
|    \\/     M anipulation  |                                                 |
\*---------------------------------------------------------------------------*/
FoamFile
{
    version     2.0;
    format      ascii;
    class       dictionary;
    object      blockMeshDict;
}
// * * * * * * * * * * * * * * * * * * * * * * * * * * * * * * * * * * * * * //

scale   0.001;

vertices
(
    (-0.84853 -0.84853  -1)
    (0.84853 -0.84853  -1)
    (0.84853  0.84853  -1)
    (-0.84853  0.84853 -1)
    (-0.84853  -0.84853  5.29)
    (0.84853  -0.84853  5.29)
    (0.84853  0.84853 5.29)
    (-0.84853  0.84853  5.29)
);

blocks
(
    hex (0 1 2 3 4 5 6 7) (6 6 22) simpleGrading (1 1 1)
);

edges
(
);

boundary
(
    inlet
    {
        type patch;
        faces
        (
            (0 3 2 1)

        );
    }
    atmosphere
    {
        type patch;
        faces
        (
            (4 5 6 7)

        );
    }
    walls
    {
        type symmetry;
        faces
        (
            (0 4 7 3)
            (1 5 4 0)
            (3 7 6 2)
            (2 6 5 1)
        );
    }
);


mergePatchPairs
(
);


// ************************************************************************* //
