/*--------------------------------*- C++ -*----------------------------------*\
| =========                 |                                                 |
| \\      /  F ield         | OpenFOAM: The Open Source CFD Toolbox           |
|  \\    /   O peration     | Version:  v2106                                 |
|   \\  /    A nd           | Website:  www.openfoam.com                      |
|    \\/     M anipulation  |                                                 |
\*---------------------------------------------------------------------------*/
FoamFile
{
    version     2.0;
    format      ascii;
    class       dictionary;
    object      controlDict;
}
// * * * * * * * * * * * * * * * * * * * * * * * * * * * * * * * * * * * * * //

application     interFlow;

startFrom       latestTime;

startTime       0;

stopAt          endTime;

endTime         0.06;

deltaT          1e-8;

writeControl    adjustable;

writeInterval   0.0005;

purgeWrite      0;

writeFormat     ascii;

writePrecision  14;

writeCompression off;

timeFormat      general;

timePrecision   6;

runTimeModifiable yes;

adjustTimeStep  yes;

maxCo           0.15;

maxAlphaCo      0.15;

maxDeltaT       0.0001;

maxCapillaryNum 0.8;

libs
(
    "libtwoPhaseProperties.so"
);
// ************************************************************************* //
